[General]
network = IoTNetworkNew


#simulation control parameters
#sim-time-limit = 604800s # 7 days
sim-time-limit = 48h # 2 days
repeat = 1



# RNG initialization
num-rngs = 8
seed-0-mt = 1000   # left specifically unused
seed-1-mt = 2000   # deus
seed-2-mt = 3000   # numen
seed-3-mt = 4000   # applications
seed-4-mt = 5000   # forwarding
seed-5-mt = 6000   # wired
seed-6-mt = 7000   # wireless
seed-7-mt = 8000   # mobility


# RNG use
**.deus.rng-0 = 1
**.numen.rng-0 = 2
**.app[*].rng-0 = 3
**.fwd.rng-0 = 4
**.wired[*].rng-0 = 5
**.wireless[*].rng-0 = 6
**.mobility.rng-0 = 7


# results location
result-dir = results/
output-vector-file = "${resultdir}/${inifile}-${configname}-${runnumber}.vec"
output-scalar-file = "${resultdir}/${inifile}-${configname}-${runnumber}.sca"


# statistic collection
**.vector-recording = true
**.scalar-recording = true
**.statistic-recording = true


# log events
record-eventlog = false
eventlog-file = "${resultdir}/${inifile}-${configname}-${runnumber}.elog"


[Config Simple-IoT-Net]


## central nodes
## ================

# Internet
**.internet.internetNumWiredTransports = 1

**.internet.numApps = 2
**.internet.app[0].typename = "ThingsApp"
**.internet.app[0].sensorDataRetrievalStartTime = 910s
**.internet.app[0].interDataDownloadInterval  = uniform(500s,1400s)
**.internet.app[0].requestedSensorNetworkPrefixName = "ccnx://uhb.de/ee/iot/"
**.internet.app[0].interestLifetime = 8s
**.internet.app[0].sensorDataNames = "temperature;humidity;water;electricity" #"soilMoistureLevel;soilpH"
**.internet.app[0].nextIndexOfSensorDataToRetrieve = intuniform(0, 3)
**.internet.app[0].maxSensorDataReadingsToKeep = 100
**.internet.app[0].maxHopsAllowed = 10
**.internet.app[0].subscriptionStartTime = 909s #default value is 10s
**.internet.app[0].interSubscriptionInterval = 48h #################
**.internet.app[0].subscriptionDuration = 48h #################
**.internet.app[0].subscriptionON = true #default value true
**.internet.app[1].typename = "ContentHostApp"
**.internet.app[1].hostedPrefixNames = "ccnx://uhb.de/cs/admin/"
**.internet.app[1].dataNamePrefix = "infpo"
**.internet.app[1].segmentSize = 1000byte
**.internet.app[1].numSegmentsPerFile = intuniform(5, 20)
**.internet.app[1].cacheTime = 80s


# main router of the university
**.zfnRouter.coreRouterNumWiredTransports = 7


## EE faculty nodes
## ================

# core router serving EE faculty
**.eeCoreRouter.coreRouterNumWiredTransports = 4

# content server of EE
**.eeContentServer.numApps = 1
**.eeContentServer.app[0].typename = "ContentHostApp"
**.eeContentServer.app[0].hostedPrefixNames = "ccnx://uhb.de/ee/admin/"
**.eeContentServer.app[0].dataNamePrefix = "etpo"
**.eeContentServer.app[0].segmentSize = 1000byte
**.eeContentServer.app[0].numSegmentsPerFile = intuniform(5, 20)
**.eeContentServer.app[0].cacheTime = 2h

# router in the EE faculty
**.eeRouter.accessRouterNumWiredTransports = 4

# wired nodes in EE faculty who is interested in sensor data

**.frank.numApps = 1
**.frank.app[0].typename = "ContentDownloadApp"
**.frank.app[0].interContentDownloadInterval = uniform(700.0s, 1000.0s)
**.frank.app[0].requestedPrefixNames = "ccnx://uhb.de/ee/admin/"
**.frank.app[0].dataNamePrefix = "etpo"
**.frank.app[0].interestRetransmitTimeout = 120s
**.frank.app[0].nextFileSuffix = intuniform(0, 99)

**.eeManagement.numApps = 1
**.eeManagement.app[0].typename = "ThingsApp"
**.eeManagement.app[0].sensorDataRetrievalStartTime = 912s
**.eeManagement.app[0].interDataDownloadInterval = uniform(500s,1200s)
**.eeManagement.app[0].requestedSensorNetworkPrefixName = "ccnx://uhb.de/ee/iot/"
**.eeManagement.app[0].interestLifetime = 8s
**.eeManagement.app[0].sensorDataNames = "temperature;humidity;water;electricity"
**.eeManagement.app[0].nextIndexOfSensorDataToRetrieve = intuniform(0, 3)
**.eeManagement.app[0].maxSensorDataReadingsToKeep = 100
**.eeManagement.app[0].maxHopsAllowed = 5
**.eeManagement.app[0].subscriptionStartTime = 911s #default value is 10s
**.eeManagement.app[0].subscriptionON = true #default value true
**.eeManagement.app[0].interSubscriptionInterval = 900s
**.eeManagement.app[0].subscriptionDuration = 48h ######################
#**.eeManagement.app[0].subscriptionDuration = 48h
**.eeManagement.app[0].cacheTime = 80s


# wireless AP in EE faculty
**.eeAP.wlanWirelessRange = 80m

# wireless node in EE faculty

**.eeHOD.numApps = 1
**.eeHOD.app[0].typename = "ThingsApp"
**.eeHOD.app[0].sensorDataRetrievalStartTime = 950s
**.eeHOD.app[0].interDataDownloadInterval = uniform(2000s,5000s)
**.eeHOD.app[0].requestedSensorNetworkPrefixName = "ccnx://uhb.de/ee/iot/"
**.eeHOD.app[0].interestLifetime = 8s
**.eeHOD.app[0].sensorDataNames = "temperature;humidity;water;electricity"
**.eeHOD.app[0].nextIndexOfSensorDataToRetrieve = intuniform(0, 3)
**.eeHOD.app[0].maxSensorDataReadingsToKeep = 100
**.eeHOD.app[0].maxHopsAllowed = 5
**.eeHOD.app[0].cacheTime = 80s
**.eeHOD.app[0].subscriptionON = false #default value true
**.eeHOD.app[0].subscriptionDuration = 0s
**.eeHOD.app[0].interSubscriptionInterval = 48h ###############
**.eeHOD.btWirelessRange = 60m
**.eeHOD.wlanWirelessRange = 80m


# IoT gateway in EE faculty
**.eeIoTGW.numApps = 1
**.eeIoTGW.app[0].typename = "IoTGatewayApp"
**.eeIoTGW.app[0].hostedPrefixName = "ccnx://uhb.de/ee/iot/"
**.eeIoTGW.app[0].hostedPrefixNameForSensorNet = "ccnx://uhb.de/ee/gw/"
**.eeIoTGW.app[0].otherGatewayAvailable = "ccnx://uhb.de/cs/iot/"
**.eeIoTGW.app[0].sensorPrefixName = "ccnx://uhb.de/ee/sensornet/"
**.eeIoTGW.app[0].sensorDataRetrievalStartTime = 970s
**.eeIoTGW.app[0].interDataDownloadInterval = uniform(2000s,5000s)
**.eeIoTGW.app[0].othersensorDataName = "humidity"#"soilMoistureLevel"
**.eeIoTGW.app[0].nextIndexOfSensorDataToRetrieve = intuniform(0, 1)
**.eeIoTGW.app[0].interestLifetime = 3s
**.eeIoTGW.app[0].maxHopsAllowed = 8
**.eeIoTGW.app[0].maximumSensorReadingsToKeep = 100
**.eeIoTGW.iotGatewayLoRaWirelessRange = 100m

# sensors connected to the IoT gateway in EE faculty
**.temperature1.numApps = 1
**.temperature1.app[0].typename = "SensingApp"
**.temperature1.app[0].sensorPrefixName = "ccnx://uhb.de/ee/sensornet/"
**.temperature1.app[0].gwPrefixName = "ccnx://uhb.de/ee/gw/"
**.temperature1.app[0].interestLifetime = 3s
**.temperature1.app[0].segmentSize = 36byte
**.temperature1.app[0].numSegmentsPerFile = 1
**.temperature1.app[0].cacheTime = 80s
**.temperature1.app[0].sensedDataTypes = "temperature"
**.temperature1.app[0].temperature = uniform(20.0, 23.0)
**.temperature1.app[0].wakeupInterval = 895s

**.humidity1.numApps = 1
**.humidity1.app[0].typename = "SensingApp"
**.humidity1.app[0].sensorPrefixName = "ccnx://uhb.de/ee/sensornet/"
**.humidity1.app[0].gwPrefixName = "ccnx://uhb.de/ee/gw/"
**.humidity1.app[0].interestLifetime = 3s
**.humidity1.app[0].segmentSize = 36byte
**.humidity1.app[0].numSegmentsPerFile = 1
**.humidity1.app[0].cacheTime = 80s
**.humidity1.app[0].sensedDataTypes = "humidity"
**.humidity1.app[0].humidity = uniform(50.0, 70.0)
**.humidity1.app[0].wakeupInterval = 896s

**.electricity1.numApps = 1
**.electricity1.app[0].typename = "SensingApp"
**.electricity1.app[0].sensorPrefixName = "ccnx://uhb.de/ee/sensornet/"
**.electricity1.app[0].gwPrefixName = "ccnx://uhb.de/ee/gw/"
**.electricity1.app[0].interestLifetime = 3s
**.electricity1.app[0].segmentSize = 36byte
**.electricity1.app[0].numSegmentsPerFile = 1
**.electricity1.app[0].cacheTime = 80s #5400s
**.electricity1.app[0].sensedDataTypes = "electricity"
**.electricity1.app[0].electrieetart = uniform(9000, 10000)
**.electricity1.app[0].electricIncrease = uniform(0.004, 0.007)
**.electricity1.app[0].wakeupInterval = 897s

**.water1.numApps = 1
**.water1.app[0].typename = "SensingApp"
**.water1.app[0].sensorPrefixName = "ccnx://uhb.de/ee/sensornet/"
**.water1.app[0].gwPrefixName = "ccnx://uhb.de/ee/gw/"
**.water1.app[0].interestLifetime = 3s
**.water1.app[0].segmentSize = 36byte
**.water1.app[0].numSegmentsPerFile = 1
**.water1.app[0].cacheTime = 80s #5400s
**.water1.app[0].sensedDataTypes = "water"
**.water1.app[0].waterStart = uniform(20000, 30000)
**.water1.app[0].waterIncrease = uniform(0.06, 0.09)
**.water1.app[0].wakeupInterval = 898s

## CS faculty nodes
## ================

# core router serving CS faculty
**.csCoreRouter.coreRouterNumWiredTransports = 5

# content server of CS
**.csContentServer.numApps = 1
**.csContentServer.app[0].typename = "ContentHostApp"
**.csContentServer.app[0].hostedPrefixNames = "ccnx://uhb.de/cs/admin/"
**.csContentServer.app[0].dataNamePrefix = "infpo"
**.csContentServer.app[0].segmentSize = 1000byte
**.csContentServer.app[0].numSegmentsPerFile = intuniform(5, 20)
**.csContentServer.app[0].cacheTime = 80s

# router in the CS faculty
**.csRouter.accessRouterNumWiredTransports = 2

# wired nodes in CS faculty
**.csManagement.numApps = 1
**.csManagement.app[0].typename = "ThingsApp"
**.csManagement.app[0].sensorDataRetrievalStartTime = 914s
**.csManagement.app[0].interDataDownloadInterval = uniform(500s,1200s)
**.csManagement.app[0].requestedSensorNetworkPrefixName = "ccnx://uhb.de/cs/iot/"
**.csManagement.app[0].interestLifetime = 8s
**.csManagement.app[0].sensorDataNames = "temperature;humidity;water;electricity"
**.csManagement.app[0].nextIndexOfSensorDataToRetrieve = intuniform(0, 3)
**.csManagement.app[0].maxSensorDataReadingsToKeep = 100
**.csManagement.app[0].maxHopsAllowed = 5
**.csManagement.app[0].subscriptionStartTime = 913s #default value is 10s
**.csManagement.app[0].subscriptionON = true #default value true
**.csManagement.app[0].interSubscriptionInterval = 900s
**.csManagement.app[0].subscriptionDuration = 48h #################
#**.csManagement.app[0].subscriptionDuration = 48h #default value true
**.csManagement.app[0].cacheTime = 80s

# wireless AP in CS faculty
**.csAP.wlanWirelessRange = 70m

# wireless node in EE faculty

#**.daniel.numApps = 1
#**.daniel.app[0].typename = "ContentDownloadApp"
#**.daniel.app[0].interContentDownloadInterval = uniform(100.0s, 150.0s)
#**.daniel.app[0].requestedPrefixNames = "ccnx://uhb.de/cs/admin/"
#**.daniel.app[0].dataNamePrefix = "infpo"
#**.daniel.app[0].interestRetransmitTimeout = 120s
#**.daniel.app[0].nextFileSuffix = intuniform(0, 99)
#**.daniel.btWirelessRange = 60m
#**.daniel.wlanWirelessRange = 80m

**.csHOD.numApps = 1
**.csHOD.app[0].typename = "ThingsApp"
**.csHOD.app[0].sensorDataRetrievalStartTime = 1000s
**.csHOD.app[0].interDataDownloadInterval = uniform(2000s,5000s)
**.csHOD.app[0].requestedSensorNetworkPrefixName = "ccnx://uhb.de/cs/iot/"
**.csHOD.app[0].interestLifetime = 8s
**.csHOD.app[0].sensorDataNames = "temperature;humidity;water;electricity"
**.csHOD.app[0].nextIndexOfSensorDataToRetrieve = intuniform(0, 3)
**.csHOD.app[0].maxSensorDataReadingsToKeep = 100
**.csHOD.app[0].maxHopsAllowed = 5
**.csHOD.app[0].cacheTime = 80s
**.csHOD.app[0].subscriptionON = false #default value true
**.csHOD.app[0].subscriptionDuration = 0s
**.csHOD.app[0].interSubscriptionInterval = 48h ###############
**.csHOD.wlanWirelessRange = 80m

# IoT gateway in CS faculty
**.csIoTGW.numApps = 1
**.csIoTGW.app[0].typename = "IoTGatewayApp"
**.csIoTGW.app[0].hostedPrefixName = "ccnx://uhb.de/cs/iot/"
**.csIoTGW.app[0].hostedPrefixNameForSensorNet = "ccnx://uhb.de/cs/gw/"
**.csIoTGW.app[0].sensorPrefixName = "ccnx://uhb.de/cs/sensornet/"
**.csIoTGW.app[0].otherGatewayAvailable = "ccnx://uhb.de/ee/iot/"
**.csIoTGW.app[0].sensorDataRetrievalStartTime = 1030s
**.csIoTGW.app[0].interDataDownloadInterval = uniform(2000s,5000s)
**.csIoTGW.app[0].othersensorDataName = "temperature"
**.csIoTGW.app[0].nextIndexOfSensorDataToRetrieve = intuniform(0, 1)
**.csIoTGW.app[0].interestLifetime = 3s
**.csIoTGW.app[0].maxHopsAllowed = 5
**.csIoTGW.app[0].maximumSensorReadingsToKeep = 100
**.csIoTGW.iotGatewayLoRaWirelessRange = 90m

# sensors connected to the IoT gateway in CS faculty
**.temperature2.numApps = 1
**.temperature2.app[0].typename = "SensingApp"
**.temperature2.app[0].sensorPrefixName = "ccnx://uhb.de/cs/sensornet/"
**.temperature2.app[0].gwPrefixName = "ccnx://uhb.de/cs/gw/"
**.temperature2.app[0].interestLifetime = 3s
**.temperature2.app[0].segmentSize = 36byte
**.temperature2.app[0].numSegmentsPerFile = 1
**.temperature2.app[0].cacheTime = 80s
**.temperature2.app[0].sensedDataTypes = "temperature"
**.temperature2.app[0].temperature = uniform(20.0, 23.0)
**.temperature2.app[0].wakeupInterval = 899s

**.humidity2.numApps = 1
**.humidity2.app[0].typename = "SensingApp"
**.humidity2.app[0].sensorPrefixName = "ccnx://uhb.de/cs/sensornet/"
**.humidity2.app[0].gwPrefixName = "ccnx://uhb.de/cs/gw/"
**.humidity2.app[0].interestLifetime = 3s
**.humidity2.app[0].segmentSize = 36byte
**.humidity2.app[0].numSegmentsPerFile = 1
**.humidity2.app[0].cacheTime = 80s
**.humidity2.app[0].sensedDataTypes = "humidity"
**.humidity2.app[0].humidity = uniform(50.0, 70.0)
**.humidity2.app[0].wakeupInterval = 900s

**.electricity2.numApps = 1
**.electricity2.app[0].typename = "SensingApp"
**.electricity2.app[0].sensorPrefixName = "ccnx://uhb.de/cs/sensornet/"
**.electricity2.app[0].gwPrefixName = "ccnx://uhb.de/cs/gw/"
**.electricity2.app[0].interestLifetime = 3s
**.electricity2.app[0].segmentSize = 36byte
**.electricity2.app[0].numSegmentsPerFile = 1
**.electricity2.app[0].cacheTime = 80s #5400s
**.electricity2.app[0].sensedDataTypes = "electricity"
**.electricity2.app[0].electricStart = uniform(9000, 10000)
**.electricity2.app[0].electricIncrease = uniform(0.004, 0.007)
**.electricity2.app[0].wakeupInterval = 901s

**.water2.numApps = 1
**.water2.app[0].typename = "SensingApp"
**.water2.app[0].sensorPrefixName = "ccnx://uhb.de/cs/sensornet/"
**.water2.app[0].gwPrefixName = "ccnx://uhb.de/cs/gw/"
**.water2.app[0].interestLifetime = 3s
**.water2.app[0].segmentSize = 36byte
**.water2.app[0].numSegmentsPerFile = 1
**.water2.app[0].cacheTime = 80s #5400s
**.water2.app[0].sensedDataTypes = "water"
**.water2.app[0].waterStart = uniform(20000, 30000)
**.water2.app[0].waterIncrease = uniform(0.06, 0.09)
**.water2.app[0].wakeupInterval = 902s

## BIO faculty nodes
## ================

# core router serving BIO faculty
**.bioCoreRouter.coreRouterNumWiredTransports = 5

# content server of BIO
**.bioContentServer.numApps = 1
**.bioContentServer.app[0].typename = "ContentHostApp"
**.bioContentServer.app[0].hostedPrefixNames = "ccnx://uhb.de/bio/admin/"
**.bioContentServer.app[0].dataNamePrefix = "infpo"
**.bioContentServer.app[0].segmentSize = 1000byte
**.bioContentServer.app[0].numSegmentsPerFile = intuniform(5, 20)
**.bioContentServer.app[0].cacheTime = 80s

# router in the BIO faculty
**.bioRouter.accessRouterNumWiredTransports = 2

# wired nodes in BIO faculty
**.bioManagement.numApps = 1
**.bioManagement.app[0].typename = "ThingsApp"
**.bioManagement.app[0].sensorDataRetrievalStartTime = 916s
**.bioManagement.app[0].interDataDownloadInterval = uniform(500s,1200s)
**.bioManagement.app[0].requestedSensorNetworkPrefixName = "ccnx://uhb.de/bio/iot/"
**.bioManagement.app[0].interestLifetime = 8s
**.bioManagement.app[0].sensorDataNames = "temperature;humidity;water;electricity"
**.bioManagement.app[0].nextIndexOfSensorDataToRetrieve = intuniform(0, 3)
**.bioManagement.app[0].maxSensorDataReadingsToKeep = 100
**.bioManagement.app[0].maxHopsAllowed = 5
**.bioManagement.app[0].subscriptionStartTime = 915s #default value is 10s
**.bioManagement.app[0].subscriptionON = true #default value true
**.bioManagement.app[0].interSubscriptionInterval = 900s
**.bioManagement.app[0].subscriptionDuration = 48h #################
#**.csManagement.app[0].subscriptionDuration = 48h #default value true
**.bioManagement.app[0].cacheTime = 80s

# wireless AP in BIO faculty
**.bioAP.wlanWirelessRange = 70m

# wireless node in BIO faculty

**.john.numApps = 1
**.john.app[0].typename = "ContentDownloadApp"
**.john.app[0].interContentDownloadInterval = uniform(700.0s, 1000.0s)
**.john.app[0].requestedPrefixNames = "ccnx://uhb.de/bio/admin/"
**.john.app[0].dataNamePrefix = "infpo"
**.john.app[0].interestRetransmitTimeout = 120s
**.john.app[0].nextFileSuffix = intuniform(0, 99)
**.john.btWirelessRange = 60m
**.john.wlanWirelessRange = 80m

# IoT gateway in BIO faculty
**.bioIoTGW.numApps = 1
**.bioIoTGW.app[0].typename = "IoTGatewayApp"
**.bioIoTGW.app[0].hostedPrefixName = "ccnx://uhb.de/bio/iot/"
**.bioIoTGW.app[0].hostedPrefixNameForSensorNet = "ccnx://uhb.de/bio/gw/"
**.bioIoTGW.app[0].sensorPrefixName = "ccnx://uhb.de/bio/sensornet/"
**.bioIoTGW.app[0].otherGatewayAvailable = "ccnx://uhb.de/ee/iot/"
**.bioIoTGW.app[0].sensorDataRetrievalStartTime = 1040s
**.bioIoTGW.app[0].interDataDownloadInterval = uniform(2000s,5000s)
**.bioIoTGW.app[0].othersensorDataName = "temperature"
**.bioIoTGW.app[0].nextIndexOfSensorDataToRetrieve = intuniform(0, 1)
**.bioIoTGW.app[0].interestLifetime = 3s
**.bioIoTGW.app[0].maxHopsAllowed = 5
**.bioIoTGW.app[0].maximumSensorReadingsToKeep = 100
**.bioIoTGW.iotGatewayLoRaWirelessRange = 90m

# sensors connected to the IoT gateway in BIO faculty
**.temperature3.numApps = 1
**.temperature3.app[0].typename = "SensingApp"
**.temperature3.app[0].sensorPrefixName = "ccnx://uhb.de/bio/sensornet/"
**.temperature3.app[0].gwPrefixName = "ccnx://uhb.de/bio/gw/"
**.temperature3.app[0].interestLifetime = 3s
**.temperature3.app[0].segmentSize = 36byte
**.temperature3.app[0].numSegmentsPerFile = 1
**.temperature3.app[0].cacheTime = 80s
**.temperature3.app[0].sensedDataTypes = "temperature"
**.temperature3.app[0].temperature = uniform(20.0, 23.0)
**.temperature3.app[0].wakeupInterval = 903s

**.humidity3.numApps = 1
**.humidity3.app[0].typename = "SensingApp"
**.humidity3.app[0].sensorPrefixName = "ccnx://uhb.de/bio/sensornet/"
**.humidity3.app[0].gwPrefixName = "ccnx://uhb.de/bio/gw/"
**.humidity3.app[0].interestLifetime = 3s
**.humidity3.app[0].segmentSize = 36byte
**.humidity3.app[0].numSegmentsPerFile = 1
**.humidity3.app[0].cacheTime = 80s
**.humidity3.app[0].sensedDataTypes = "humidity"
**.humidity3.app[0].humidity = uniform(50.0, 73.0)
**.humidity3.app[0].wakeupInterval = 904s

**.electricity3.numApps = 1
**.electricity3.app[0].typename = "SensingApp"
**.electricity3.app[0].sensorPrefixName = "ccnx://uhb.de/bio/sensornet/"
**.electricity3.app[0].gwPrefixName = "ccnx://uhb.de/bio/gw/"
**.electricity3.app[0].interestLifetime = 3s
**.electricity3.app[0].segmentSize = 36byte
**.electricity3.app[0].numSegmentsPerFile = 1
**.electricity3.app[0].cacheTime = 80s #5400s
**.electricity3.app[0].sensedDataTypes = "electricity"
**.electricity3.app[0].electricStart = uniform(9000, 10000)
**.electricity3.app[0].electricIncrease = uniform(0.004, 0.007)
**.electricity3.app[0].wakeupInterval = 905s

**.water3.numApps = 1
**.water3.app[0].typename = "SensingApp"
**.water3.app[0].sensorPrefixName = "ccnx://uhb.de/bio/sensornet/"
**.water3.app[0].gwPrefixName = "ccnx://uhb.de/bio/gw/"
**.water3.app[0].interestLifetime = 3s
**.water3.app[0].segmentSize = 36byte
**.water3.app[0].numSegmentsPerFile = 1
**.water3.app[0].cacheTime = 80s #5400s
**.water3.app[0].sensedDataTypes = "water"
**.water3.app[0].waterStart = uniform(20000, 30000)
**.water3.app[0].waterIncrease = uniform(0.06, 0.09)
**.water3.app[0].wakeupInterval = 906s


## Laboratory nodes
## ================

# core router serving Lab
**.labCoreRouter.coreRouterNumWiredTransports = 3

# IoT gateway in Lab
**.labIoTGW.numApps = 1
**.labIoTGW.app[0].typename = "IoTGatewayApp"
**.labIoTGW.app[0].hostedPrefixName = "ccnx://uhb.de/lab/iot/"
**.labIoTGW.app[0].hostedPrefixNameForSensorNet = "ccnx://uhb.de/lab/gw/"
**.labIoTGW.app[0].sensorPrefixName = "ccnx://uhb.de/lab/sensornet/"
**.labIoTGW.app[0].interestLifetime = 3s
**.labIoTGW.app[0].maxHopsAllowed = 5
**.labIoTGW.app[0].maximumSensorReadingsToKeep = 100
**.labIoTGW.iotGatewayLoRaWirelessRange = 50m

# sensors connected to the IoT gateway in Lab
**.temperature4.numApps = 1
**.temperature4.app[0].typename = "SensingApp"
**.temperature4.app[0].sensorPrefixName = "ccnx://uhb.de/lab/sensornet/"
**.temperature4.app[0].gwPrefixName = "ccnx://uhb.de/lab/gw/"
**.temperature4.app[0].interestLifetime = 3s
**.temperature4.app[0].segmentSize = 36byte
**.temperature4.app[0].numSegmentsPerFile = 1
**.temperature4.app[0].cacheTime = 80s
**.temperature4.app[0].sensedDataTypes = "temperature"
**.temperature4.app[0].temperature = uniform(20.0, 23.0)
**.temperature4.app[0].wakeupInterval = 300s

**.humidity4.numApps = 1
**.humidity4.app[0].typename = "SensingApp"
**.humidity4.app[0].sensorPrefixName = "ccnx://uhb.de/lab/sensornet/"
**.humidity4.app[0].gwPrefixName = "ccnx://uhb.de/lab/gw/"
**.humidity4.app[0].interestLifetime = 3s
**.humidity4.app[0].segmentSize = 36byte
**.humidity4.app[0].numSegmentsPerFile = 1
**.humidity4.app[0].cacheTime = 80s
**.humidity4.app[0].sensedDataTypes = "humidity"
**.humidity4.app[0].humidity = uniform(50.0, 73.0)
**.humidity4.app[0].wakeupInterval = 300s

#Wired node subscribing to lab sensor data
**.labTechnician.numApps = 1
**.labTechnician.app[0].typename = "ThingsApp"
**.labTechnician.app[0].sensorDataRetrievalStartTime = 918s
**.labTechnician.app[0].interDataDownloadInterval = uniform(500s,1200s)
**.labTechnician.app[0].requestedSensorNetworkPrefixName = "ccnx://uhb.de/lab/iot/"
**.labTechnician.app[0].interestLifetime = 8s
**.labTechnician.app[0].sensorDataNames = "temperature;humidity"
**.labTechnician.app[0].nextIndexOfSensorDataToRetrieve = intuniform(0, 1)
**.labTechnician.app[0].maxSensorDataReadingsToKeep = 100
**.labTechnician.app[0].maxHopsAllowed = 5
**.labTechnician.app[0].subscriptionStartTime = 917s #default value is 10s
**.labTechnician.app[0].subscriptionON = true #default value true
**.labTechnician.app[0].interSubscriptionInterval = 300s
**.labTechnician.app[0].subscriptionDuration = 48h ##################
#**.labTechnician.app[0].subscriptionDuration = 48h #default value true
**.labTechnician.app[0].cacheTime = 80s


## Server Room nodes
## ================
# IoT gateway in Library
**.serverRoomIoTGW.numApps = 1
**.serverRoomIoTGW.app[0].typename = "IoTGatewayApp"
**.serverRoomIoTGW.app[0].hostedPrefixName = "ccnx://uhb.de/server/iot/"
**.serverRoomIoTGW.app[0].hostedPrefixNameForSensorNet = "ccnx://uhb.de/server/gw/"
**.serverRoomIoTGW.app[0].sensorPrefixName = "ccnx://uhb.de/server/sensornet/"
**.serverRoomIoTGW.app[0].nextIndexOfSensorDataToRetrieve = intuniform(0, 1)
**.serverRoomIoTGW.app[0].interestLifetime = 3s
**.serverRoomIoTGW.app[0].maxHopsAllowed = 5
**.serverRoomIoTGW.app[0].maximumSensorReadingsToKeep = 100
**.serverRoomIoTGW.iotGatewayLoRaWirelessRange = 50m

# sensors connected to the IoT gateway in Server Room
**.temperature5.numApps = 1
**.temperature5.app[0].typename = "SensingApp"
**.temperature5.app[0].sensorPrefixName = "ccnx://uhb.de/server/sensornet/"
**.temperature5.app[0].gwPrefixName = "ccnx://uhb.de/server/gw/"
**.temperature5.app[0].interestLifetime = 3s
**.temperature5.app[0].segmentSize = 36byte
**.temperature5.app[0].numSegmentsPerFile = 1
**.temperature5.app[0].cacheTime = 80s
**.temperature5.app[0].sensedDataTypes = "temperature"
**.temperature5.app[0].temperature = uniform(20.0, 23.0)
**.temperature5.app[0].wakeupInterval = 120s

**.humidity5.numApps = 1
**.humidity5.app[0].typename = "SensingApp"
**.humidity5.app[0].sensorPrefixName = "ccnx://uhb.de/server/sensornet/"
**.humidity5.app[0].gwPrefixName = "ccnx://uhb.de/server/gw/"
**.humidity5.app[0].interestLifetime = 3s
**.humidity5.app[0].segmentSize = 36byte
**.humidity5.app[0].numSegmentsPerFile = 1
**.humidity5.app[0].cacheTime = 80s
**.humidity5.app[0].sensedDataTypes = "humidity"
**.humidity5.app[0].humidity = uniform(50.0, 73.0)
**.humidity5.app[0].wakeupInterval = 120s

#Wired node subscribing to Server Room sensor data
**.systemAdmin.numApps = 1
**.systemAdmin.app[0].typename = "ThingsApp"
**.systemAdmin.app[0].sensorDataRetrievalStartTime = 920s
**.systemAdmin.app[0].interDataDownloadInterval = uniform(500s,1200s)
**.systemAdmin.app[0].requestedSensorNetworkPrefixName = "ccnx://uhb.de/server/iot/"
**.systemAdmin.app[0].interestLifetime = 8s
**.systemAdmin.app[0].sensorDataNames = "temperature;humidity"
**.systemAdmin.app[0].nextIndexOfSensorDataToRetrieve = intuniform(0, 1)
**.systemAdmin.app[0].maxSensorDataReadingsToKeep = 100
**.systemAdmin.app[0].maxHopsAllowed = 5
**.systemAdmin.app[0].subscriptionStartTime = 901s #default value is 10s
**.systemAdmin.app[0].subscriptionON = true #default value true
**.systemAdmin.app[0].interSubscriptionInterval = 120s
**.systemAdmin.app[0].subscriptionDuration = 48h ###################
#**.systemAdmin.app[0].subscriptionDuration = 48h #default value true
**.systemAdmin.app[0].cacheTime = 80s

## Other global settings
## ================

# mobility settings
**.constraintAreaMinX = 0m
**.constraintAreaMinY = 0m
**.constraintAreaMinZ = 0m
**.constraintAreaMaxX = 1600m
**.constraintAreaMaxY = 400m
**.constraintAreaMaxZ = 0m
**.updateInterval = 1s
**.initFromDisplayString = true

