[General]
network = AdvancedIoTNetwork

#simulation control parameters
sim-time-limit = 48h # 2 days
repeat = 1


# RNG initialization
num-rngs = 8
seed-0-mt = 1000   # left specifically unused
seed-1-mt = 2000   # demiurge
seed-2-mt = 3000   # numen
seed-3-mt = 4000   # applications
seed-4-mt = 5000   # forwarding
seed-5-mt = 6000   # wired
seed-6-mt = 7000   # wireless
seed-7-mt = 8000   # mobility


# RNG use
**.demiurge.rng-0 = 1
**.numen.rng-0 = 2
**.app[*].rng-0 = 3
**.fwd.rng-0 = 4
**.wired[*].rng-0 = 5
**.wireless[*].rng-0 = 6
**.mobility.rng-0 = 7


# results location
result-dir = results/
output-vector-file = "${resultdir}/${inifile}-${configname}-${runnumber}.vec"
output-scalar-file = "${resultdir}/${inifile}-${configname}-${runnumber}.sca"


# statistic collection
**.vector-recording = true
**.scalar-recording = true
**.statistic-recording = true


# log events
record-eventlog = false
eventlog-file = "${resultdir}/${inifile}-${configname}-${runnumber}.elog"


[Config Advanced-IoT-Net]

# main router of the university
**.zfnRouter.coreRouterNumWiredTransports = 4


# wireless APs in ZFN
**.zfnAP.wlanWirelessRange = 50m


# wireless nodes in ZFN

**.zfnUser1.numApps = 1
**.zfnUser1.app[0].typename = "ThingsApp"
**.zfnUser1.app[0].sensorDataRetrievalStartTime = 3650s
**.zfnUser1.app[0].interDataDownloadInterval = uniform(2000s,5000s)
**.zfnUser1.app[0].requestedSensorNetworkPrefixName = "ccnx://uhb.de/s0/r12/iot/"
**.zfnUser1.app[0].interestLifetime = 8s
**.zfnUser1.app[0].sensorDataNames = "temperature;motion;lightIntensity"
**.zfnUser1.app[0].nextIndexOfSensorDataToRetrieve = intuniform(0, 2)
**.zfnUser1.app[0].maxSensorDataReadingsToKeep = 100
**.zfnUser1.app[0].maxHopsAllowed = 40
**.zfnUser1.app[0].cacheTime = 300s
**.zfnUser1.app[0].subscriptionON = false #default value true
**.zfnUser1.app[0].subscriptionDuration = 0s
**.zfnUser1.app[0].interSubscriptionInterval = 48h ###############
**.zfnUser1.btWirelessRange = 10m
**.zfnUser1.wlanWirelessRange = 50m

**.zfnUser2.numApps = 1
**.zfnUser2.app[0].typename = "ThingsApp"
**.zfnUser2.app[0].sensorDataRetrievalStartTime = 3650s
**.zfnUser2.app[0].interDataDownloadInterval = uniform(2000s,5000s)
**.zfnUser2.app[0].requestedSensorNetworkPrefixName = "ccnx://uhb.de/s0/r13/iot/"
**.zfnUser2.app[0].interestLifetime = 8s
**.zfnUser2.app[0].sensorDataNames = "temperature;motion;lightIntensity"
**.zfnUser2.app[0].nextIndexOfSensorDataToRetrieve = intuniform(0, 2)
**.zfnUser2.app[0].maxSensorDataReadingsToKeep = 100
**.zfnUser2.app[0].maxHopsAllowed = 40
**.zfnUser2.app[0].cacheTime = 300s
**.zfnUser2.app[0].subscriptionON = false #default value true
**.zfnUser2.app[0].subscriptionDuration = 0s
**.zfnUser2.app[0].interSubscriptionInterval = 48h ###############
**.zfnUser2.btWirelessRange = 10m
**.zfnUser2.wlanWirelessRange = 50m

**.zfnUser3.numApps = 1
**.zfnUser3.app[0].typename = "ThingsApp"
**.zfnUser3.app[0].sensorDataRetrievalStartTime = 3650s
**.zfnUser3.app[0].interDataDownloadInterval = uniform(2000s,5000s)
**.zfnUser3.app[0].requestedSensorNetworkPrefixName = "ccnx://uhb.de/s0/r13/iot/"
**.zfnUser3.app[0].interestLifetime = 8s
**.zfnUser3.app[0].sensorDataNames = "temperature;motion;lightIntensity"
**.zfnUser3.app[0].nextIndexOfSensorDataToRetrieve = intuniform(0, 2)
**.zfnUser3.app[0].maxSensorDataReadingsToKeep = 100
**.zfnUser3.app[0].maxHopsAllowed = 40
**.zfnUser3.app[0].cacheTime = 300s
**.zfnUser3.app[0].subscriptionON = false #default value true
**.zfnUser3.app[0].subscriptionDuration = 0s
**.zfnUser3.app[0].interSubscriptionInterval = 48h ###############
**.zfnUser3.btWirelessRange = 10m
**.zfnUser3.wlanWirelessRange = 50m


# Internet
**.Internet.internetNumWiredTransports = 1

**.Internet.numApps = 9

**.Internet.app[0].typename = "AdminThingsApp"
**.Internet.app[0].sensorDataRetrievalStartTime = 1500s
**.Internet.app[0].interDataDownloadInterval  = uniform(1000s,2000s)
**.Internet.app[0].requestedSensorNetworkPrefixName = "ccnx://uhb.de/s0/r12/iot/"
**.Internet.app[0].interestLifetime = 8s
**.Internet.app[0].sensorDataNames = "temperature;motion;lightIntensity" 
**.Internet.app[0].nextIndexOfSensorDataToRetrieve = intuniform(0, 2)
**.Internet.app[0].maxSensorDataReadingsToKeep = 100
**.Internet.app[0].maxHopsAllowed = 40
**.Internet.app[0].subscriptionStartTime = 3609s #default value is 10s
**.Internet.app[0].interSubscriptionInterval = 48h #################
**.Internet.app[0].subscriptionDuration = 48h #################
**.Internet.app[0].subscriptionON = true #default value true
**.Internet.app[0].cacheTime = 300s
**.Internet.app[0].configurationSettingsStartTime = 2s
**.Internet.app[0].configurationParameter = "TempLow" # Choose from: "TempLow","Temphigh","LightLow","LightHigh"
**.Internet.app[0].configurationValue = 13

**.Internet.app[1].typename = "AdminThingsApp"
**.Internet.app[1].sensorDataRetrievalStartTime = 1500s
**.Internet.app[1].interDataDownloadInterval  = uniform(1000s,2000s)
**.Internet.app[1].requestedSensorNetworkPrefixName = "ccnx://uhb.de/s0/r13/iot/"
**.Internet.app[1].interestLifetime = 8s
**.Internet.app[1].sensorDataNames = "temperature;motion;lightIntensity" 
**.Internet.app[1].nextIndexOfSensorDataToRetrieve = intuniform(0, 2)
**.Internet.app[1].maxSensorDataReadingsToKeep = 100
**.Internet.app[1].maxHopsAllowed = 40
**.Internet.app[1].subscriptionStartTime = 3609s #default value is 10s
**.Internet.app[1].interSubscriptionInterval = 48h #################
**.Internet.app[1].subscriptionDuration = 48h #################
**.Internet.app[1].subscriptionON = true #default value true
**.Internet.app[1].cacheTime = 300s
**.Internet.app[1].configurationSettingsStartTime = 2s
**.Internet.app[1].configurationParameter = "TempLow" # Choose from: "TempLow","Temphigh","LightLow","LightHigh"
**.Internet.app[1].configurationValue = 13

**.Internet.app[2].typename = "AdminThingsApp"
**.Internet.app[2].sensorDataRetrievalStartTime = 1500s
**.Internet.app[2].interDataDownloadInterval  = uniform(1000s,2000s)
**.Internet.app[2].requestedSensorNetworkPrefixName = "ccnx://uhb.de/s0/r14/iot/"
**.Internet.app[2].interestLifetime = 8s
**.Internet.app[2].sensorDataNames = "temperature;motion;lightIntensity" 
**.Internet.app[2].nextIndexOfSensorDataToRetrieve = intuniform(0, 2)
**.Internet.app[2].maxSensorDataReadingsToKeep = 100
**.Internet.app[2].maxHopsAllowed = 40
**.Internet.app[2].subscriptionStartTime = 3609s #default value is 10s
**.Internet.app[2].interSubscriptionInterval = 48h #################
**.Internet.app[2].subscriptionDuration = 48h #################
**.Internet.app[2].subscriptionON = true #default value true
**.Internet.app[2].cacheTime = 300s
**.Internet.app[2].configurationSettingsStartTime = 2s
**.Internet.app[2].configurationParameter = "TempLow" # Choose from: "TempLow","Temphigh","LightLow","LightHigh"
**.Internet.app[2].configurationValue = 13

**.Internet.app[3].typename = "AdminThingsApp"
**.Internet.app[3].sensorDataRetrievalStartTime = 1500s
**.Internet.app[3].interDataDownloadInterval  = uniform(1000s,2000s)
**.Internet.app[3].requestedSensorNetworkPrefixName = "ccnx://uhb.de/s0/r15/iot/"
**.Internet.app[3].interestLifetime = 8s
**.Internet.app[3].sensorDataNames = "temperature;motion;lightIntensity" 
**.Internet.app[3].nextIndexOfSensorDataToRetrieve = intuniform(0, 2)
**.Internet.app[3].maxSensorDataReadingsToKeep = 100
**.Internet.app[3].maxHopsAllowed = 40
**.Internet.app[3].subscriptionStartTime = 3609s #default value is 10s
**.Internet.app[3].interSubscriptionInterval = 48h #################
**.Internet.app[3].subscriptionDuration = 48h #################
**.Internet.app[3].subscriptionON = true #default value true
**.Internet.app[3].cacheTime = 300s
**.Internet.app[3].configurationSettingsStartTime = 2s
**.Internet.app[3].configurationParameter = "TempLow" # Choose from: "TempLow","Temphigh","LightLow","LightHigh"
**.Internet.app[3].configurationValue = 13

**.Internet.app[4].typename = "AdminThingsApp"
**.Internet.app[4].sensorDataRetrievalStartTime = 1500s
**.Internet.app[4].interDataDownloadInterval  = uniform(1000s,2000s)
**.Internet.app[4].requestedSensorNetworkPrefixName = "ccnx://uhb.de/s0/r16/iot/"
**.Internet.app[4].interestLifetime = 8s
**.Internet.app[4].sensorDataNames = "temperature;motion;lightIntensity" 
**.Internet.app[4].nextIndexOfSensorDataToRetrieve = intuniform(0, 2)
**.Internet.app[4].maxSensorDataReadingsToKeep = 100
**.Internet.app[4].maxHopsAllowed = 40
**.Internet.app[4].subscriptionStartTime = 3609s #default value is 10s
**.Internet.app[4].interSubscriptionInterval = 48h #################
**.Internet.app[4].subscriptionDuration = 48h #################
**.Internet.app[4].subscriptionON = true #default value true
**.Internet.app[4].cacheTime = 300s
**.Internet.app[4].configurationSettingsStartTime = 2s
**.Internet.app[4].configurationParameter = "TempLow" # Choose from: "TempLow","Temphigh","LightLow","LightHigh"
**.Internet.app[4].configurationValue = 13

**.Internet.app[5].typename = "AdminThingsApp"
**.Internet.app[5].sensorDataRetrievalStartTime = 1500s
**.Internet.app[5].interDataDownloadInterval  = uniform(1000s,2000s)
**.Internet.app[5].requestedSensorNetworkPrefixName = "ccnx://uhb.de/o/r17/iot/"
**.Internet.app[5].interestLifetime = 8s
**.Internet.app[5].sensorDataNames = "temperature;motion;lightIntensity" 
**.Internet.app[5].nextIndexOfSensorDataToRetrieve = intuniform(0, 2)
**.Internet.app[5].maxSensorDataReadingsToKeep = 100
**.Internet.app[5].maxHopsAllowed = 40
**.Internet.app[5].subscriptionStartTime = 3609s #default value is 10s
**.Internet.app[5].interSubscriptionInterval = 48h #################
**.Internet.app[5].subscriptionDuration = 48h #################
**.Internet.app[5].subscriptionON = true #default value true
**.Internet.app[5].cacheTime = 300s
**.Internet.app[5].configurationSettingsStartTime = 2s
**.Internet.app[5].configurationParameter = "TempLow" # Choose from: "TempLow","Temphigh","LightLow","LightHigh"
**.Internet.app[5].configurationValue = 13

**.Internet.app[6].typename = "AdminThingsApp"
**.Internet.app[6].sensorDataRetrievalStartTime = 1500s
**.Internet.app[6].interDataDownloadInterval  = uniform(1000s,2000s)
**.Internet.app[6].requestedSensorNetworkPrefixName = "ccnx://uhb.de/o/r18/iot/"
**.Internet.app[6].interestLifetime = 8s
**.Internet.app[6].sensorDataNames = "temperature;motion;lightIntensity" 
**.Internet.app[6].nextIndexOfSensorDataToRetrieve = intuniform(0, 2)
**.Internet.app[6].maxSensorDataReadingsToKeep = 100
**.Internet.app[6].maxHopsAllowed = 40
**.Internet.app[6].subscriptionStartTime = 3609s #default value is 10s
**.Internet.app[6].interSubscriptionInterval = 48h #################
**.Internet.app[6].subscriptionDuration = 48h #################
**.Internet.app[6].subscriptionON = true #default value true
**.Internet.app[6].cacheTime = 300s
**.Internet.app[6].configurationSettingsStartTime = 2s
**.Internet.app[6].configurationParameter = "TempLow" # Choose from: "TempLow","Temphigh","LightLow","LightHigh"
**.Internet.app[6].configurationValue = 13

**.Internet.app[7].typename = "AdminThingsApp"
**.Internet.app[7].sensorDataRetrievalStartTime = 1500s
**.Internet.app[7].interDataDownloadInterval  = uniform(1000s,2000s)
**.Internet.app[7].requestedSensorNetworkPrefixName = "ccnx://uhb.de/o/r19/iot/"
**.Internet.app[7].interestLifetime = 8s
**.Internet.app[7].sensorDataNames = "temperature;motion;lightIntensity" 
**.Internet.app[7].nextIndexOfSensorDataToRetrieve = intuniform(0, 2)
**.Internet.app[7].maxSensorDataReadingsToKeep = 100
**.Internet.app[7].maxHopsAllowed = 40
**.Internet.app[7].subscriptionStartTime = 3609s #default value is 10s
**.Internet.app[7].interSubscriptionInterval = 48h #################
**.Internet.app[7].subscriptionDuration = 48h #################
**.Internet.app[7].subscriptionON = true #default value true
**.Internet.app[7].cacheTime = 300s
**.Internet.app[7].configurationSettingsStartTime = 2s
**.Internet.app[7].configurationParameter = "TempLow" # Choose from: "TempLow","Temphigh","LightLow","LightHigh"
**.Internet.app[7].configurationValue = 13

**.Internet.app[8].typename = "AdminThingsApp"
**.Internet.app[8].sensorDataRetrievalStartTime = 1500s
**.Internet.app[8].interDataDownloadInterval  = uniform(1000s,2000s)
**.Internet.app[8].requestedSensorNetworkPrefixName = "ccnx://uhb.de/o/r20/iot/"
**.Internet.app[8].interestLifetime = 8s
**.Internet.app[8].sensorDataNames = "temperature;motion;lightIntensity" 
**.Internet.app[8].nextIndexOfSensorDataToRetrieve = intuniform(0, 2)
**.Internet.app[8].maxSensorDataReadingsToKeep = 100
**.Internet.app[8].maxHopsAllowed = 40
**.Internet.app[8].subscriptionStartTime = 3609s #default value is 10s
**.Internet.app[8].interSubscriptionInterval = 48h #################
**.Internet.app[8].subscriptionDuration = 48h #################
**.Internet.app[8].subscriptionON = true #default value true
**.Internet.app[8].cacheTime = 300s
**.Internet.app[8].configurationSettingsStartTime = 2s
**.Internet.app[8].configurationParameter = "TempLow" # Choose from: "TempLow","Temphigh","LightLow","LightHigh"
**.Internet.app[8].configurationValue = 13






## S0 Section nodes
## ================

# core router serving S0 Section
**.S0CoreRouter.coreRouterNumWiredTransports = 5

# content server of S0
**.S0ContentServer.numApps = 1
**.S0ContentServer.app[0].typename = "ContentHostApp"
**.S0ContentServer.app[0].hostedPrefixNames = "ccnx://uhb.de/s0/admin/"
**.S0ContentServer.app[0].dataNamePrefix = "infpo"
**.S0ContentServer.app[0].segmentSize = 1000byte
**.S0ContentServer.app[0].numSegmentsPerFile = intuniform(5, 20)
**.S0ContentServer.app[0].cacheTime = 80s

# router in the S0
**.S0Router.accessRouterNumWiredTransports = 2

# wired nodes in S0, S0 Management subscribes to all the Gateways in the S0 section

#Retrieval and Subscription from GW1
**.S0Management.numApps = 5
**.S0Management.app[0].typename = "ThingsApp"
**.S0Management.app[0].sensorDataRetrievalStartTime = 1000s
**.S0Management.app[0].interDataDownloadInterval = uniform(1000s,1200s)
**.S0Management.app[0].requestedSensorNetworkPrefixName = "ccnx://uhb.de/s0/r12/iot/"
**.S0Management.app[0].interestLifetime = 8s
**.S0Management.app[0].sensorDataNames = "temperature;motion;lightIntensity"
**.S0Management.app[0].nextIndexOfSensorDataToRetrieve = intuniform(0, 2)
**.S0Management.app[0].maxSensorDataReadingsToKeep = 100
**.S0Management.app[0].maxHopsAllowed = 40
**.S0Management.app[0].subscriptionStartTime = 1006s #default value is 10s
**.S0Management.app[0].subscriptionON = true #default value true
**.S0Management.app[0].interSubscriptionInterval = 3600s
**.S0Management.app[0].subscriptionDuration = 48h #################
#**.S0Management.app[0].subscriptionDuration = 48h #default value true
**.S0Management.app[0].cacheTime = 300s

#Retrieval and Subscription from GW2
**.S0Management.app[1].typename = "ThingsApp"
**.S0Management.app[1].sensorDataRetrievalStartTime = 1001s
**.S0Management.app[1].interDataDownloadInterval = uniform(1000s,1200s)
**.S0Management.app[1].requestedSensorNetworkPrefixName = "ccnx://uhb.de/s0/r13/iot/"
**.S0Management.app[1].interestLifetime = 8s
**.S0Management.app[1].sensorDataNames = "temperature;motion;lightIntensity"
**.S0Management.app[1].nextIndexOfSensorDataToRetrieve = intuniform(0, 2)
**.S0Management.app[1].maxSensorDataReadingsToKeep = 100
**.S0Management.app[1].maxHopsAllowed = 40
**.S0Management.app[1].subscriptionStartTime = 1007s #default value is 10s
**.S0Management.app[1].subscriptionON = true #default value true
**.S0Management.app[1].interSubscriptionInterval = 3600s
**.S0Management.app[1].subscriptionDuration = 48h #################
#**.S0Management.app[1].subscriptionDuration = 48h #default value true
**.S0Management.app[1].cacheTime = 300s

#Retrieval and Subscription from GW3
**.S0Management.app[2].typename = "ThingsApp"
**.S0Management.app[2].sensorDataRetrievalStartTime = 1002s
**.S0Management.app[2].interDataDownloadInterval = uniform(1000s,1200s)
**.S0Management.app[2].requestedSensorNetworkPrefixName = "ccnx://uhb.de/s0/r14/iot/"
**.S0Management.app[2].interestLifetime = 8s
**.S0Management.app[2].sensorDataNames = "temperature;motion;lightIntensity"
**.S0Management.app[2].nextIndexOfSensorDataToRetrieve = intuniform(0, 2)
**.S0Management.app[2].maxSensorDataReadingsToKeep = 100
**.S0Management.app[2].maxHopsAllowed = 40
**.S0Management.app[2].subscriptionStartTime = 1008s #default value is 10s
**.S0Management.app[2].subscriptionON = true #default value true
**.S0Management.app[2].interSubscriptionInterval = 3600s
**.S0Management.app[2].subscriptionDuration = 48h #################
#**.S0Management.app[2].subscriptionDuration = 48h #default value true
**.S0Management.app[2].cacheTime = 300s

#Retrieval and Subscription from GW4
**.S0Management.app[3].typename = "ThingsApp"
**.S0Management.app[3].sensorDataRetrievalStartTime = 1003s
**.S0Management.app[3].interDataDownloadInterval = uniform(1000s,1200s)
**.S0Management.app[3].requestedSensorNetworkPrefixName = "ccnx://uhb.de/s0/r15/iot/"
**.S0Management.app[3].interestLifetime = 8s
**.S0Management.app[3].sensorDataNames = "temperature;motion;lightIntensity"
**.S0Management.app[3].nextIndexOfSensorDataToRetrieve = intuniform(0, 2)
**.S0Management.app[3].maxSensorDataReadingsToKeep = 100
**.S0Management.app[3].maxHopsAllowed = 40
**.S0Management.app[3].subscriptionStartTime = 1009s #default value is 10s
**.S0Management.app[3].subscriptionON = true #default value true
**.S0Management.app[3].interSubscriptionInterval = 3600s
**.S0Management.app[3].subscriptionDuration = 48h #################
#**.S0Management.app[3].subscriptionDuration = 48h #default value true
**.S0Management.app[3].cacheTime = 300s

#Retrieval and Subscription from GW5
**.S0Management.app[4].typename = "ThingsApp"
**.S0Management.app[4].sensorDataRetrievalStartTime = 1004s
**.S0Management.app[4].interDataDownloadInterval = uniform(1000s,1200s)
**.S0Management.app[4].requestedSensorNetworkPrefixName = "ccnx://uhb.de/s0/r16/iot/"
**.S0Management.app[4].interestLifetime = 8s
**.S0Management.app[4].sensorDataNames = "temperature;motion;lightIntensity"
**.S0Management.app[4].nextIndexOfSensorDataToRetrieve = intuniform(0, 2)
**.S0Management.app[4].maxSensorDataReadingsToKeep = 100
**.S0Management.app[4].maxHopsAllowed = 40
**.S0Management.app[4].subscriptionStartTime = 1010s #default value is 10s
**.S0Management.app[4].subscriptionON = true #default value true
**.S0Management.app[4].interSubscriptionInterval = 3600s
**.S0Management.app[4].subscriptionDuration = 48h #################
#**.S0Management.app[4].subscriptionDuration = 48h #default value true
**.S0Management.app[4].cacheTime = 300s

# wireless APs in S2
**.S0AP1.wlanWirelessRange = 50m
**.S0AP2.wlanWirelessRange = 50m

# wireless node in S0
**.S0User1.numApps = 1
**.S0User1.app[0].typename = "ThingsApp"
**.S0User1.app[0].sensorDataRetrievalStartTime = 3650s
**.S0User1.app[0].interDataDownloadInterval = uniform(2000s,5000s)
**.S0User1.app[0].requestedSensorNetworkPrefixName = "ccnx://uhb.de/s0/r16/iot/"
**.S0User1.app[0].interestLifetime = 8s
**.S0User1.app[0].sensorDataNames = "temperature;motion;lightIntensity"
**.S0User1.app[0].nextIndexOfSensorDataToRetrieve = intuniform(0, 2)
**.S0User1.app[0].maxSensorDataReadingsToKeep = 100
**.S0User1.app[0].maxHopsAllowed = 40
**.S0User1.app[0].cacheTime = 300s
**.S0User1.app[0].subscriptionON = false #default value true
**.S0User1.app[0].subscriptionDuration = 0s
**.S0User1.app[0].interSubscriptionInterval = 48h ###############
**.S0User1.btWirelessRange = 10m
**.S0User1.wlanWirelessRange = 50m

# IoT gateway in Room12 of S0
**.GW12.numApps = 1
**.GW12.app[0].typename = "IoTGatewayApp"
**.GW12.app[0].hostedPrefixName = "ccnx://uhb.de/s0/r12/iot/"
**.GW12.app[0].hostedPrefixNameForSensorNet = "ccnx://uhb.de/s0/r12/gw/"
**.GW12.app[0].sensorPrefixName = "ccnx://uhb.de/s0/r12/sensornet/"
**.GW12.app[0].nameOfTheSensor = "tempSen12"
**.GW12.app[0].sensorDataRetrievalStartTime = 950s
**.GW12.app[0].interDataDownloadInterval = uniform(2000s,5000s)
**.GW12.app[0].othersensorDataName = "temperature"
**.GW12.app[0].nextIndexOfSensorDataToRetrieve = 0
**.GW12.app[0].interestLifetime = 3s
**.GW12.app[0].maxHopsAllowed = 40
**.GW12.app[0].maximumSensorReadingsToKeep = 100
**.GW12.app[0].sensorWakeUpInterval = 900s #needs to be same as Sesnor Wake-Up Interval (To ensure Pure CCN)
**.GW12.iotGatewayLoRaWirelessRange = 100m
**.GW12.wlanWirelessRange = 50m
**.GW12.pureWireless = true



# sensors connected to the IoT gateway in S0 Room1
**.tempSen12.numApps = 1
**.tempSen12.app[0].typename = "SensingApp"
**.tempSen12.app[0].sensorPrefixName = "ccnx://uhb.de/s0/r12/sensornet/"
**.tempSen12.app[0].gwPrefixName = "ccnx://uhb.de/s0/r12/gw/"
**.tempSen12.app[0].interestLifetime = 3s
**.tempSen12.app[0].segmentSize = 36byte
**.tempSen12.app[0].numSegmentsPerFile = 1
**.tempSen12.app[0].cacheTime = 300s
**.tempSen12.app[0].sensedDataTypes = "temperature"
**.tempSen12.app[0].temperature = uniform(20.0, 23.0)
**.tempSen12.app[0].wakeupInterval = 900s
**.tempSen12.wirelessSensorNodeLoRaWirelessRange = 100m

**.motionSen12.numApps = 1
**.motionSen12.app[0].typename = "SensingApp"
**.motionSen12.app[0].sensorPrefixName = "ccnx://uhb.de/s0/r12/sensornet/"
**.motionSen12.app[0].gwPrefixName = "ccnx://uhb.de/s0/r12/gw/"
**.motionSen12.app[0].interestLifetime = 3s
**.motionSen12.app[0].segmentSize = 36byte
**.motionSen12.app[0].numSegmentsPerFile = 1
**.motionSen12.app[0].cacheTime = 300s
**.motionSen12.app[0].sensedDataTypes = "motion"
**.motionSen12.app[0].wakeupInterval = 900s
**.motionSen12.wirelessSensorNodeLoRaWirelessRange = 100m

**.lightSen12.numApps = 1
**.lightSen12.app[0].typename = "SensingApp"
**.lightSen12.app[0].sensorPrefixName = "ccnx://uhb.de/s0/r12/sensornet/"
**.lightSen12.app[0].gwPrefixName = "ccnx://uhb.de/s0/r12/gw/"
**.lightSen12.app[0].interestLifetime = 3s
**.lightSen12.app[0].segmentSize = 36byte
**.lightSen12.app[0].numSegmentsPerFile = 1
**.lightSen12.app[0].cacheTime = 300s #5400s
**.lightSen12.app[0].sensedDataTypes = "lightIntensity"
**.lightSen12.app[0].lightIntensity = uniform(50, 1000)
**.lightSen12.app[0].wakeupInterval = 900s
**.lightSen12.wirelessSensorNodeLoRaWirelessRange = 100m

**.bulb12.numApps = 1
**.bulb12.app[0].typename = "ActuatorApp"
**.bulb12.app[0].gwPrefixName = "ccnx://uhb.de/s0/r12/gw/"
**.bulb12.app[0].interestLifetime = 3s
**.bulb12.app[0].segmentSize = 36byte
**.bulb12.app[0].numSegmentsPerFile = 1
**.bulb12.app[0].cacheTime = 300s  #5400s
**.bulb12.app[0].actuatorDataTypes = "lightIntensity;motion"
**.bulb12.app[0].wakeupInterval = 3603s
**.bulb12.wirelessSensorNodeLoRaWirelessRange = 100m

**.furnace12.numApps = 1
**.furnace12.app[0].typename = "ActuatorApp"
**.furnace12.app[0].gwPrefixName = "ccnx://uhb.de/s0/r12/gw/"
**.furnace12.app[0].interestLifetime = 3s
**.furnace12.app[0].segmentSize = 36byte
**.furnace12.app[0].numSegmentsPerFile = 1
**.furnace12.app[0].cacheTime = 300s  #5400s
**.furnace12.app[0].actuatorDataTypes = "temperature"
**.furnace12.app[0].wakeupInterval = 3604s
**.furnace12.wirelessSensorNodeLoRaWirelessRange = 100m

# IoT gateway in Room13 of S0
**.GW13.numApps = 1
**.GW13.app[0].typename = "IoTGatewayApp"
**.GW13.app[0].hostedPrefixName = "ccnx://uhb.de/s0/r13/iot/"
**.GW13.app[0].hostedPrefixNameForSensorNet = "ccnx://uhb.de/s0/r13/gw/"
**.GW13.app[0].sensorPrefixName = "ccnx://uhb.de/s0/r13/sensornet/"
**.GW13.app[0].nameOfTheSensor = "tempSen13"
**.GW13.app[0].sensorDataRetrievalStartTime = 950s
**.GW13.app[0].interDataDownloadInterval = uniform(2000s,5000s)
**.GW13.app[0].othersensorDataName = "temperature"
**.GW13.app[0].nextIndexOfSensorDataToRetrieve = 0
**.GW13.app[0].interestLifetime = 3s
**.GW13.app[0].maxHopsAllowed = 40
**.GW13.app[0].maximumSensorReadingsToKeep = 100
**.GW13.app[0].sensorWakeUpInterval = 900s #needs to be same as Sesnor Wake-Up Interval (To ensure Pure CCN)
**.GW13.iotGatewayLoRaWirelessRange = 100m
**.GW13.wlanWirelessRange = 50m
**.GW13.pureWireless = true

# sensors connected to the IoT gateway in S0 Room13
**.tempSen13.numApps = 1
**.tempSen13.app[0].typename = "SensingApp"
**.tempSen13.app[0].sensorPrefixName = "ccnx://uhb.de/s0/r13/sensornet/"
**.tempSen13.app[0].gwPrefixName = "ccnx://uhb.de/s0/r13/gw/"
**.tempSen13.app[0].interestLifetime = 3s
**.tempSen13.app[0].segmentSize = 36byte
**.tempSen13.app[0].numSegmentsPerFile = 1
**.tempSen13.app[0].cacheTime = 300s 
**.tempSen13.app[0].sensedDataTypes = "temperature"
**.tempSen13.app[0].temperature = uniform(20.0, 23.0)
**.tempSen13.app[0].wakeupInterval = 900s
**.tempSen13.wirelessSensorNodeLoRaWirelessRange = 100m

**.motionSen13.numApps = 1
**.motionSen13.app[0].typename = "SensingApp"
**.motionSen13.app[0].sensorPrefixName = "ccnx://uhb.de/s0/r13/sensornet/"
**.motionSen13.app[0].gwPrefixName = "ccnx://uhb.de/s0/r13/gw/"
**.motionSen13.app[0].interestLifetime = 3s
**.motionSen13.app[0].segmentSize = 36byte
**.motionSen13.app[0].numSegmentsPerFile = 1
**.motionSen13.app[0].cacheTime = 300s
**.motionSen13.app[0].sensedDataTypes = "motion"
**.motionSen13.app[0].wakeupInterval = 900s
**.motionSen13.wirelessSensorNodeLoRaWirelessRange = 100m

**.lightSen13.numApps = 1
**.lightSen13.app[0].typename = "SensingApp"
**.lightSen13.app[0].sensorPrefixName = "ccnx://uhb.de/s0/r13/sensornet/"
**.lightSen13.app[0].gwPrefixName = "ccnx://uhb.de/s0/r13/gw/"
**.lightSen13.app[0].interestLifetime = 3s
**.lightSen13.app[0].segmentSize = 36byte
**.lightSen13.app[0].numSegmentsPerFile = 1
**.lightSen13.app[0].cacheTime = 300s  #5400s
**.lightSen13.app[0].sensedDataTypes = "lightIntensity"
**.lightSen13.app[0].lightIntensity = uniform(50, 1000)
**.lightSen13.app[0].wakeupInterval = 900s
**.lightSen13.wirelessSensorNodeLoRaWirelessRange = 100m

**.bulb13.numApps = 1
**.bulb13.app[0].typename = "ActuatorApp"
**.bulb13.app[0].gwPrefixName = "ccnx://uhb.de/s0/r13/gw/"
**.bulb13.app[0].interestLifetime = 3s
**.bulb13.app[0].segmentSize = 36byte
**.bulb13.app[0].numSegmentsPerFile = 1
**.bulb13.app[0].cacheTime = 300s  #5400s
**.bulb13.app[0].actuatorDataTypes = "lightIntensity;motion"
**.bulb13.app[0].wakeupInterval = 3603s
**.bulb13.wirelessSensorNodeLoRaWirelessRange = 100m

**.furnace13.numApps = 1
**.furnace13.app[0].typename = "ActuatorApp"
**.furnace13.app[0].gwPrefixName = "ccnx://uhb.de/s0/r13/gw/"
**.furnace13.app[0].interestLifetime = 3s
**.furnace13.app[0].segmentSize = 36byte
**.furnace13.app[0].numSegmentsPerFile = 1
**.furnace13.app[0].cacheTime = 300s  #5400s
**.furnace13.app[0].actuatorDataTypes = "temperature"
**.furnace13.app[0].wakeupInterval = 3604s
**.furnace13.wirelessSensorNodeLoRaWirelessRange = 100m

# IoT gateway in Room14 of S0
**.GW14.numApps = 1
**.GW14.app[0].typename = "IoTGatewayApp"
**.GW14.app[0].hostedPrefixName = "ccnx://uhb.de/s0/r14/iot/"
**.GW14.app[0].hostedPrefixNameForSensorNet = "ccnx://uhb.de/s0/r14/gw/"
**.GW14.app[0].sensorPrefixName = "ccnx://uhb.de/s0/r14/sensornet/"
**.GW14.app[0].nameOfTheSensor = "tempSen14"
**.GW14.app[0].sensorDataRetrievalStartTime = 950s
**.GW14.app[0].interDataDownloadInterval = uniform(2000s,5000s)
**.GW14.app[0].othersensorDataName = "temperature"
**.GW14.app[0].nextIndexOfSensorDataToRetrieve = 0
**.GW14.app[0].interestLifetime = 3s
**.GW14.app[0].maxHopsAllowed = 40
**.GW14.app[0].maximumSensorReadingsToKeep = 100
**.GW14.app[0].sensorWakeUpInterval = 900s #needs to be same as Sesnor Wake-Up Interval (To ensure Pure CCN)
**.GW14.iotGatewayLoRaWirelessRange = 100m
**.GW14.wlanWirelessRange = 50m
**.GW14.pureWireless = true


# sensors connected to the IoT gateway in S0 Room14
**.tempSen14.numApps = 1
**.tempSen14.app[0].typename = "SensingApp"
**.tempSen14.app[0].sensorPrefixName = "ccnx://uhb.de/s0/r14/sensornet/"
**.tempSen14.app[0].gwPrefixName = "ccnx://uhb.de/s0/r14/gw/"
**.tempSen14.app[0].interestLifetime = 3s
**.tempSen14.app[0].segmentSize = 36byte
**.tempSen14.app[0].numSegmentsPerFile = 1
**.tempSen14.app[0].cacheTime = 300s 
**.tempSen14.app[0].sensedDataTypes = "temperature"
**.tempSen14.app[0].temperature = uniform(20.0, 23.0)
**.tempSen14.app[0].wakeupInterval = 900s
**.tempSen14.wirelessSensorNodeLoRaWirelessRange = 100m

**.motionSen14.numApps = 1
**.motionSen14.app[0].typename = "SensingApp"
**.motionSen14.app[0].sensorPrefixName = "ccnx://uhb.de/s0/r14/sensornet/"
**.motionSen14.app[0].gwPrefixName = "ccnx://uhb.de/s0/r14/gw/"
**.motionSen14.app[0].interestLifetime = 3s
**.motionSen14.app[0].segmentSize = 36byte
**.motionSen14.app[0].numSegmentsPerFile = 1
**.motionSen14.app[0].cacheTime = 300s 
**.motionSen14.app[0].sensedDataTypes = "motion"
**.motionSen14.app[0].wakeupInterval = 900s
**.motionSen14.wirelessSensorNodeLoRaWirelessRange = 100m

**.lightSen14.numApps = 1
**.lightSen14.app[0].typename = "SensingApp"
**.lightSen14.app[0].sensorPrefixName = "ccnx://uhb.de/s0/r14/sensornet/"
**.lightSen14.app[0].gwPrefixName = "ccnx://uhb.de/s0/r14/gw/"
**.lightSen14.app[0].interestLifetime = 3s
**.lightSen14.app[0].segmentSize = 36byte
**.lightSen14.app[0].numSegmentsPerFile = 1
**.lightSen14.app[0].cacheTime = 300s  #5400s
**.lightSen14.app[0].sensedDataTypes = "lightIntensity"
**.lightSen14.app[0].lightIntensity = uniform(50, 1000)
**.lightSen14.app[0].wakeupInterval = 900s
**.lightSen14.wirelessSensorNodeLoRaWirelessRange = 100m

**.bulb14.numApps = 1
**.bulb14.app[0].typename = "ActuatorApp"
**.bulb14.app[0].gwPrefixName = "ccnx://uhb.de/s0/r14/gw/"
**.bulb14.app[0].interestLifetime = 3s
**.bulb14.app[0].segmentSize = 36byte
**.bulb14.app[0].numSegmentsPerFile = 1
**.bulb14.app[0].cacheTime = 300s  #5400s
**.bulb14.app[0].actuatorDataTypes = "lightIntensity;motion"
**.bulb14.app[0].wakeupInterval = 3603s
**.bulb14.wirelessSensorNodeLoRaWirelessRange = 100m

**.furnace14.numApps = 1
**.furnace14.app[0].typename = "ActuatorApp"
**.furnace14.app[0].gwPrefixName = "ccnx://uhb.de/s0/r14/gw/"
**.furnace14.app[0].interestLifetime = 3s